
 OpenBabel05202122013D

 30 30  0  0  0  0  0  0  0  0999 V2000
    0.3493    0.7879   -1.3526 C   0  0  0  0  0  0  0  0  0  0  0  0
   -1.1302    1.1695   -1.2401 C   0  0  0  0  0  0  0  0  0  0  0  0
    1.3288    1.9007   -0.9719 C   0  0  0  0  0  0  0  0  0  0  0  0
    0.6806    1.3763    2.2287 C   0  0  0  0  0  0  0  0  0  0  0  0
    2.1601    0.9947    2.1163 C   0  0  0  0  0  0  0  0  0  0  0  0
   -0.2988    0.2635    1.8481 C   0  0  0  0  0  0  0  0  0  0  0  0
    2.6720    0.4557    0.7723 C   0  0  0  0  0  0  0  0  0  0  0  0
    2.6757    1.4117   -0.4297 C   0  0  0  0  0  0  0  0  0  0  0  0
   -1.6420    1.7086    0.1039 C   0  0  0  0  0  0  0  0  0  0  0  0
   -1.6457    0.7525    1.3059 C   0  0  0  0  0  0  0  0  0  0  0  0
   -2.1741    1.2560    2.1262 H   0  0  0  0  0  0  0  0  0  0  0  0
   -2.2531   -0.1256    1.0522 H   0  0  0  0  0  0  0  0  0  0  0  0
   -2.6898    1.9975   -0.0609 H   0  0  0  0  0  0  0  0  0  0  0  0
   -1.1423    2.6470    0.3588 H   0  0  0  0  0  0  0  0  0  0  0  0
    3.2830    2.2898   -0.1760 H   0  0  0  0  0  0  0  0  0  0  0  0
    3.2040    0.9082   -1.2500 H   0  0  0  0  0  0  0  0  0  0  0  0
    2.1722   -0.4828    0.5173 H   0  0  0  0  0  0  0  0  0  0  0  0
    3.7197    0.1667    0.9371 H   0  0  0  0  0  0  0  0  0  0  0  0
   -1.3381    1.9323   -2.0021 H   0  0  0  0  0  0  0  0  0  0  0  0
   -1.7325    0.2955   -1.5184 H   0  0  0  0  0  0  0  0  0  0  0  0
    0.1313   -0.4478    1.1459 H   0  0  0  0  0  0  0  0  0  0  0  0
   -0.4948   -0.3344    2.7485 H   0  0  0  0  0  0  0  0  0  0  0  0
    0.4828    1.6558    3.2725 H   0  0  0  0  0  0  0  0  0  0  0  0
    0.5056    2.2941    1.6709 H   0  0  0  0  0  0  0  0  0  0  0  0
    2.7624    1.8687    2.3946 H   0  0  0  0  0  0  0  0  0  0  0  0
    2.3680    0.2319    2.8782 H   0  0  0  0  0  0  0  0  0  0  0  0
    0.5471    0.5084   -2.3963 H   0  0  0  0  0  0  0  0  0  0  0  0
    0.5243   -0.1299   -0.7947 H   0  0  0  0  0  0  0  0  0  0  0  0
    1.5247    2.4986   -1.8723 H   0  0  0  0  0  0  0  0  0  0  0  0
    0.8986    2.6120   -0.2697 H   0  0  0  0  0  0  0  0  0  0  0  0
  1  2  1  0  0  0  0
  1  3  1  0  0  0  0
  1 27  1  0  0  0  0
  1 28  1  0  0  0  0
  2  9  1  0  0  0  0
  2 19  1  0  0  0  0
  2 20  1  0  0  0  0
  3  8  1  0  0  0  0
  3 29  1  0  0  0  0
  3 30  1  0  0  0  0
  4  5  1  0  0  0  0
  4 23  1  0  0  0  0
  4 24  1  0  0  0  0
  5  7  1  0  0  0  0
  5 25  1  0  0  0  0
  5 26  1  0  0  0  0
  6 10  1  0  0  0  0
  6  4  1  0  0  0  0
  6 21  1  0  0  0  0
  6 22  1  0  0  0  0
  7 17  1  0  0  0  0
  7 18  1  0  0  0  0
  8  7  1  0  0  0  0
  8 15  1  0  0  0  0
  8 16  1  0  0  0  0
  9 13  1  0  0  0  0
  9 14  1  0  0  0  0
 10  9  1  0  0  0  0
 10 11  1  0  0  0  0
 10 12  1  0  0  0  0
M  END
$$$$
