D:\Users\grsou\Documents\Dropbox\Moleculas\cicloalcanos\cicloexano-barco-torcido.xyz
 OpenBabel05192117413D

 18 18  0  0  0  0  0  0  0  0999 V2000
   -0.1472   -0.5105   -1.0745 C   0  0  0  0  0  0  0  0  0  0  0  0
    1.0413    0.3213   -0.6075 C   0  0  0  0  0  0  0  0  0  0  0  0
   -1.3970   -0.1685   -0.2180 C   0  0  0  0  0  0  0  0  0  0  0  0
    0.1370   -1.5770   -0.9311 H   0  0  0  0  0  0  0  0  0  0  0  0
   -0.3845   -0.3671   -2.1502 H   0  0  0  0  0  0  0  0  0  0  0  0
    1.9343    0.2109   -1.2590 H   0  0  0  0  0  0  0  0  0  0  0  0
    1.4126   -0.0648    0.8505 C   0  0  0  0  0  0  0  0  0  0  0  0
    0.7201    1.3859   -0.6532 H   0  0  0  0  0  0  0  0  0  0  0  0
   -2.0544   -1.0643   -0.2497 H   0  0  0  0  0  0  0  0  0  0  0  0
   -1.9657    0.6819   -0.6526 H   0  0  0  0  0  0  0  0  0  0  0  0
   -1.0561    0.2322    1.2434 C   0  0  0  0  0  0  0  0  0  0  0  0
    0.1932   -0.5096    1.7035 C   0  0  0  0  0  0  0  0  0  0  0  0
    1.9142    0.8232    1.2927 H   0  0  0  0  0  0  0  0  0  0  0  0
    2.1371   -0.9075    0.8744 H   0  0  0  0  0  0  0  0  0  0  0  0
    0.4191   -0.3578    2.7805 H   0  0  0  0  0  0  0  0  0  0  0  0
   -0.0080   -1.5935    1.5506 H   0  0  0  0  0  0  0  0  0  0  0  0
   -1.9377    0.0475    1.8936 H   0  0  0  0  0  0  0  0  0  0  0  0
   -0.8179    1.3179    1.2986 H   0  0  0  0  0  0  0  0  0  0  0  0
  1  4  1  0  0  0  0
  1  2  1  0  0  0  0
  1  3  1  0  0  0  0
  2  7  1  0  0  0  0
  3 11  1  0  0  0  0
  5  1  1  0  0  0  0
  6  2  1  0  0  0  0
  7 14  1  0  0  0  0
  7 13  1  0  0  0  0
  7 12  1  0  0  0  0
  8  2  1  0  0  0  0
  9  3  1  0  0  0  0
 10  3  1  0  0  0  0
 11 18  1  0  0  0  0
 11 12  1  0  0  0  0
 11 17  1  0  0  0  0
 12 15  1  0  0  0  0
 16 12  1  0  0  0  0
M  END
$$$$
