
 OpenBabel07302113363D

 12 11  0  0  0  0  0  0  0  0999 V2000
   -0.4908    0.3709    0.0000 C   0  0  0  0  0  0  0  0  0  0  0  0
   -0.9934   -0.3217    1.2592 C   0  0  0  0  0  0  0  0  0  0  0  0
   -0.8251    1.4385    0.0048 H   0  0  0  0  0  0  0  0  0  0  0  0
   -1.0161   -0.3175   -1.2522 C   0  0  0  0  0  0  0  0  0  0  0  0
    0.9660    0.3896   -0.0132 C   0  0  0  0  0  0  0  0  0  0  0  0
   -0.6831   -1.3743    1.2976 H   0  0  0  0  0  0  0  0  0  0  0  0
   -2.0904   -0.3007    1.2979 H   0  0  0  0  0  0  0  0  0  0  0  0
   -0.6590    0.1746   -2.1656 H   0  0  0  0  0  0  0  0  0  0  0  0
   -2.1136   -0.2964   -1.2710 H   0  0  0  0  0  0  0  0  0  0  0  0
   -0.7066   -1.3700   -1.2998 H   0  0  0  0  0  0  0  0  0  0  0  0
    2.1246    0.4073   -0.0236 N   0  0  0  0  0  0  0  0  0  0  0  0
   -0.6197    0.1674    2.1676 H   0  0  0  0  0  0  0  0  0  0  0  0
  1  3  1  0  0  0  0
  1  5  1  0  0  0  0
  1  2  1  0  0  0  0
  2  7  1  0  0  0  0
  2  6  1  0  0  0  0
  2 12  1  0  0  0  0
  4  1  1  0  0  0  0
  5 11  3  0  0  0  0
  8  4  1  0  0  0  0
  9  4  1  0  0  0  0
 10  4  1  0  0  0  0
M  END
$$$$
