D:\Users\grsou\Documents\Dropbox\Moleculas\haloalcanos\iodoetano_alternado.xyz
 OpenBabel05192117273D

  8  7  0  0  0  0  0  0  0  0999 V2000
   -0.6019    0.3367   -0.1534 C   0  0  0  0  0  0  0  0  0  0  0  0
    0.9164    0.3437   -0.0774 C   0  0  0  0  0  0  0  0  0  0  0  0
   -0.9503    1.1866   -0.7772 H   0  0  0  0  0  0  0  0  0  0  0  0
   -1.4451    0.5185    1.8015 I   0  0  0  0  0  0  0  0  0  0  0  0
   -0.9503   -0.6139   -0.6096 H   0  0  0  0  0  0  0  0  0  0  0  0
    1.2700    1.2949    0.3733 H   0  0  0  0  0  0  0  0  0  0  0  0
    1.3427    0.2487   -1.0983 H   0  0  0  0  0  0  0  0  0  0  0  0
    1.2700   -0.5080    0.5411 H   0  0  0  0  0  0  0  0  0  0  0  0
  1  2  1  0  0  0  0
  1  4  1  0  0  0  0
  2  6  1  0  0  0  0
  2  8  1  0  0  0  0
  3  1  1  0  0  0  0
  5  1  1  0  0  0  0
  7  2  1  0  0  0  0
M  END
$$$$
