D:\Users\grsou\Documents\Dropbox\Moleculas\haloalcanos\bromoetano_alternado.xyz
 OpenBabel05192117263D

  8  7  0  0  0  0  0  0  0  0999 V2000
   -0.6135    0.3393   -0.1246 C   0  0  0  0  0  0  0  0  0  0  0  0
    0.9057    0.3452   -0.0614 C   0  0  0  0  0  0  0  0  0  0  0  0
   -0.9663    1.1895   -0.7456 H   0  0  0  0  0  0  0  0  0  0  0  0
   -1.3599    0.5050    1.6555 Br  0  0  0  0  0  0  0  0  0  0  0  0
   -0.9663   -0.6108   -0.5781 H   0  0  0  0  0  0  0  0  0  0  0  0
    1.2645    1.2961    0.3861 H   0  0  0  0  0  0  0  0  0  0  0  0
    1.3230    0.2499   -1.0859 H   0  0  0  0  0  0  0  0  0  0  0  0
    1.2645   -0.5068    0.5539 H   0  0  0  0  0  0  0  0  0  0  0  0
  1  2  1  0  0  0  0
  1  4  1  0  0  0  0
  2  6  1  0  0  0  0
  2  8  1  0  0  0  0
  3  1  1  0  0  0  0
  5  1  1  0  0  0  0
  7  2  1  0  0  0  0
M  END
$$$$
