
 OpenBabel07302113333D

  6  5  0  0  0  0  0  0  0  0999 V2000
   -1.2803   -0.0000    0.0000 C   0  0  0  0  0  0  0  0  0  0  0  0
    0.1602    0.0000    0.0000 C   0  0  0  0  0  0  0  0  0  0  0  0
    1.3196    0.0000    0.0000 N   0  0  0  0  0  0  0  0  0  0  0  0
   -1.6632   -0.5145    0.8911 H   0  0  0  0  0  0  0  0  0  0  0  0
   -1.6632   -0.5145   -0.8911 H   0  0  0  0  0  0  0  0  0  0  0  0
   -1.6632    1.0290    0.0000 H   0  0  0  0  0  0  0  0  0  0  0  0
  1  2  1  0  0  0  0
  1  6  1  0  0  0  0
  1  4  1  0  0  0  0
  2  3  3  0  0  0  0
  5  1  1  0  0  0  0
M  END
$$$$
