D:\Users\grsou\Documents\Dropbox\Moleculas\haloalcanos\cloroetano_alternado.xyz
 OpenBabel05192117273D

  8  7  0  0  0  0  0  0  0  0999 V2000
   -0.6223    0.3415   -0.1013 C   0  0  0  0  0  0  0  0  0  0  0  0
    0.8976    0.3464   -0.0490 C   0  0  0  0  0  0  0  0  0  0  0  0
   -0.9787    1.1918   -0.7201 H   0  0  0  0  0  0  0  0  0  0  0  0
   -1.2957    0.4943    1.5408 Cl  0  0  0  0  0  0  0  0  0  0  0  0
   -0.9787   -0.6084   -0.5526 H   0  0  0  0  0  0  0  0  0  0  0  0
    1.2611    1.2970    0.3955 H   0  0  0  0  0  0  0  0  0  0  0  0
    1.3073    0.2507   -1.0766 H   0  0  0  0  0  0  0  0  0  0  0  0
    1.2611   -0.5060    0.5633 H   0  0  0  0  0  0  0  0  0  0  0  0
  1  2  1  0  0  0  0
  1  4  1  0  0  0  0
  2  6  1  0  0  0  0
  2  8  1  0  0  0  0
  3  1  1  0  0  0  0
  5  1  1  0  0  0  0
  7  2  1  0  0  0  0
M  END
$$$$
