
 OpenBabel07282118363D

 27 26  0  0  0  0  0  0  0  0999 V2000
    1.2723    0.0346    0.0259 C   0  0  0  0  0  0  0  0  0  0  0  0
    2.2644   -0.3247    1.1498 C   0  0  0  0  0  0  0  0  0  0  0  0
    2.1788    0.3787    1.9867 H   0  0  0  0  0  0  0  0  0  0  0  0
    2.0447   -1.3185    1.5579 H   0  0  0  0  0  0  0  0  0  0  0  0
    3.3020   -0.3184    0.7992 H   0  0  0  0  0  0  0  0  0  0  0  0
    1.6155    1.4513   -0.4515 C   0  0  0  0  0  0  0  0  0  0  0  0
    1.3524    2.1954    0.3086 H   0  0  0  0  0  0  0  0  0  0  0  0
    2.6833    1.5487   -0.6777 H   0  0  0  0  0  0  0  0  0  0  0  0
    1.0779    1.7208   -1.3636 H   0  0  0  0  0  0  0  0  0  0  0  0
    1.4578   -0.9836   -1.1000 C   0  0  0  0  0  0  0  0  0  0  0  0
    2.4967   -1.0045   -1.4485 H   0  0  0  0  0  0  0  0  0  0  0  0
    1.1938   -1.9930   -0.7669 H   0  0  0  0  0  0  0  0  0  0  0  0
    0.8364   -0.7491   -1.9681 H   0  0  0  0  0  0  0  0  0  0  0  0
    0.0000    0.0000    0.6758 O   0  0  0  0  0  0  0  0  0  0  0  0
   -1.2723   -0.0346    0.0259 C   0  0  0  0  0  0  0  0  0  0  0  0
   -1.4578    0.9836   -1.1000 C   0  0  0  0  0  0  0  0  0  0  0  0
   -1.1938    1.9930   -0.7669 H   0  0  0  0  0  0  0  0  0  0  0  0
   -0.8364    0.7491   -1.9681 H   0  0  0  0  0  0  0  0  0  0  0  0
   -2.4967    1.0045   -1.4485 H   0  0  0  0  0  0  0  0  0  0  0  0
   -1.6155   -1.4513   -0.4515 C   0  0  0  0  0  0  0  0  0  0  0  0
   -1.0779   -1.7208   -1.3636 H   0  0  0  0  0  0  0  0  0  0  0  0
   -1.3524   -2.1954    0.3086 H   0  0  0  0  0  0  0  0  0  0  0  0
   -2.6833   -1.5487   -0.6777 H   0  0  0  0  0  0  0  0  0  0  0  0
   -2.2644    0.3247    1.1498 C   0  0  0  0  0  0  0  0  0  0  0  0
   -2.1788   -0.3787    1.9867 H   0  0  0  0  0  0  0  0  0  0  0  0
   -2.0447    1.3185    1.5579 H   0  0  0  0  0  0  0  0  0  0  0  0
   -3.3020    0.3184    0.7992 H   0  0  0  0  0  0  0  0  0  0  0  0
  1 14  1  0  0  0  0
  1  2  1  0  0  0  0
  2  4  1  0  0  0  0
  2  3  1  0  0  0  0
  5  2  1  0  0  0  0
  6  7  1  0  0  0  0
  6  1  1  0  0  0  0
  8  6  1  0  0  0  0
  9  6  1  0  0  0  0
 10 12  1  0  0  0  0
 10  1  1  0  0  0  0
 11 10  1  0  0  0  0
 13 10  1  0  0  0  0
 15 14  1  0  0  0  0
 15 24  1  0  0  0  0
 16 17  1  0  0  0  0
 16 15  1  0  0  0  0
 18 16  1  0  0  0  0
 19 16  1  0  0  0  0
 20 22  1  0  0  0  0
 20 15  1  0  0  0  0
 21 20  1  0  0  0  0
 23 20  1  0  0  0  0
 24 26  1  0  0  0  0
 24 25  1  0  0  0  0
 27 24  1  0  0  0  0
M  END
$$$$
