
 OpenBabel07292119513D

 12 11  0  0  0  0  0  0  0  0999 V2000
    2.1076    0.5263   -0.0474 H   0  0  0  0  0  0  0  0  0  0  0  0
    1.1950   -0.0810    0.0084 C   0  0  0  0  0  0  0  0  0  0  0  0
    1.2273   -0.7976   -0.8231 H   0  0  0  0  0  0  0  0  0  0  0  0
    1.2320   -0.6541    0.9434 H   0  0  0  0  0  0  0  0  0  0  0  0
   -0.0590    0.7852   -0.0385 C   0  0  0  0  0  0  0  0  0  0  0  0
   -0.0530    1.4984    0.8227 H   0  0  0  0  0  0  0  0  0  0  0  0
    0.0096    1.5368   -1.2380 O   0  0  0  0  0  0  0  0  0  0  0  0
   -0.8070    2.0127   -1.3073 H   0  0  0  0  0  0  0  0  0  0  0  0
   -1.3185   -0.0772    0.0243 C   0  0  0  0  0  0  0  0  0  0  0  0
   -1.3801   -0.7716   -0.8241 H   0  0  0  0  0  0  0  0  0  0  0  0
   -1.3320   -0.6769    0.9430 H   0  0  0  0  0  0  0  0  0  0  0  0
   -2.2316    0.5329    0.0167 H   0  0  0  0  0  0  0  0  0  0  0  0
  2  3  1  0  0  0  0
  2  1  1  0  0  0  0
  2  5  1  0  0  0  0
  4  2  1  0  0  0  0
  5  7  1  0  0  0  0
  6  5  1  0  0  0  0
  7  8  1  0  0  0  0
  9 10  1  0  0  0  0
  9 12  1  0  0  0  0
  9  5  1  0  0  0  0
 11  9  1  0  0  0  0
M  END
$$$$
