
 OpenBabel07282118433D

  4  3  0  0  0  0  0  0  0  0999 V2000
   -0.5949    0.0000   -0.0000 C   0  0  0  0  0  0  0  0  0  0  0  0
    0.5949    0.0000    0.0000 C   0  0  0  0  0  0  0  0  0  0  0  0
   -1.6594    0.0000   -0.0000 H   0  0  0  0  0  0  0  0  0  0  0  0
    1.6594    0.0000    0.0000 H   0  0  0  0  0  0  0  0  0  0  0  0
  1  2  3  0  0  0  0
  2  4  1  0  0  0  0
  3  1  1  0  0  0  0
M  END
$$$$
