
 OpenBabel07302114233D

 13 12  0  0  0  0  0  0  0  0999 V2000
    2.1416   -0.4691    0.0000 N   0  0  0  0  0  0  0  0  0  0  0  0
    0.9788    0.2182    0.0000 C   0  0  0  0  0  0  0  0  0  0  0  0
   -0.1979   -0.4586   -0.0000 O   0  0  0  0  0  0  0  0  0  0  0  0
   -1.4367    0.1499   -0.0000 C   0  0  0  0  0  0  0  0  0  0  0  0
   -2.5261   -0.9113   -0.0000 C   0  0  0  0  0  0  0  0  0  0  0  0
    0.9970    1.4415    0.0000 O   0  0  0  0  0  0  0  0  0  0  0  0
    2.1360   -1.4994    0.0000 H   0  0  0  0  0  0  0  0  0  0  0  0
    3.0456    0.0264    0.0000 H   0  0  0  0  0  0  0  0  0  0  0  0
   -1.5457    0.7844   -0.9068 H   0  0  0  0  0  0  0  0  0  0  0  0
   -1.5457    0.7844    0.9068 H   0  0  0  0  0  0  0  0  0  0  0  0
   -2.4366   -1.5490    0.9051 H   0  0  0  0  0  0  0  0  0  0  0  0
   -2.4366   -1.5490   -0.9051 H   0  0  0  0  0  0  0  0  0  0  0  0
   -3.5240   -0.4243   -0.0000 H   0  0  0  0  0  0  0  0  0  0  0  0
  1  2  1  0  0  0  0
  1  7  1  0  0  0  0
  1  8  1  0  0  0  0
  2  3  1  0  0  0  0
  2  6  2  0  0  0  0
  3  4  1  0  0  0  0
  4  5  1  0  0  0  0
  4  9  1  0  0  0  0
  5 13  1  0  0  0  0
  5 12  1  0  0  0  0
 10  4  1  0  0  0  0
 11  5  1  0  0  0  0
M  END
$$$$
