
 OpenBabel07082108513D

  3  2  0  0  0  0  0  0  0  0999 V2000
   -0.0178   -0.0169   -0.0186 O   0  0  0  0  0  0  0  0  0  0  0  0
    0.9716    0.0119    0.0131 H   0  0  0  0  0  0  0  0  0  0  0  0
   -0.3071    0.6194    0.6828 H   0  0  0  0  0  0  0  0  0  0  0  0
  1  2  1  0  0  0  0
  1  3  1  0  0  0  0
M  END
$$$$
