
 OpenBabel07302114203D

  9  8  0  0  0  0  0  0  0  0999 V2000
   -1.2689   -0.7642    0.0000 C   0  0  0  0  0  0  0  0  0  0  0  0
   -0.0224    0.0786    0.0000 C   0  0  0  0  0  0  0  0  0  0  0  0
    1.2136   -0.5726    0.0000 N   0  0  0  0  0  0  0  0  0  0  0  0
    0.0000    1.3045    0.0000 O   0  0  0  0  0  0  0  0  0  0  0  0
   -2.1718   -0.1394    0.0000 H   0  0  0  0  0  0  0  0  0  0  0  0
   -1.3143   -1.4095    0.8875 H   0  0  0  0  0  0  0  0  0  0  0  0
   -1.3143   -1.4095   -0.8875 H   0  0  0  0  0  0  0  0  0  0  0  0
    2.0617   -0.0597    0.0000 H   0  0  0  0  0  0  0  0  0  0  0  0
    1.2611   -1.5608    0.0000 H   0  0  0  0  0  0  0  0  0  0  0  0
  1  2  1  0  0  0  0
  1  5  1  0  0  0  0
  1  6  1  0  0  0  0
  2  3  1  0  0  0  0
  2  4  2  0  0  0  0
  3  8  1  0  0  0  0
  3  9  1  0  0  0  0
  7  1  1  0  0  0  0
M  END
$$$$
