
 OpenBabel07282118343D

 16 16  0  0  0  0  0  0  0  0999 V2000
    0.0000   -1.3565   -0.6342 C   0  0  0  0  0  0  0  0  0  0  0  0
    1.2466   -0.7722    0.0115 C   0  0  0  0  0  0  0  0  0  0  0  0
    1.1838    0.7538   -0.0010 C   0  0  0  0  0  0  0  0  0  0  0  0
   -0.0000    1.2601    0.5876 O   0  0  0  0  0  0  0  0  0  0  0  0
   -1.1838    0.7538   -0.0010 C   0  0  0  0  0  0  0  0  0  0  0  0
   -1.2466   -0.7722    0.0115 C   0  0  0  0  0  0  0  0  0  0  0  0
    0.0000   -2.4591   -0.5439 H   0  0  0  0  0  0  0  0  0  0  0  0
    0.0000   -1.1420   -1.7216 H   0  0  0  0  0  0  0  0  0  0  0  0
    2.1562   -1.1116   -0.5183 H   0  0  0  0  0  0  0  0  0  0  0  0
    1.3426   -1.1432    1.0508 H   0  0  0  0  0  0  0  0  0  0  0  0
    1.9691    1.2114    0.6224 H   0  0  0  0  0  0  0  0  0  0  0  0
    1.2839    1.1460   -1.0316 H   0  0  0  0  0  0  0  0  0  0  0  0
   -1.2839    1.1460   -1.0316 H   0  0  0  0  0  0  0  0  0  0  0  0
   -1.9691    1.2114    0.6224 H   0  0  0  0  0  0  0  0  0  0  0  0
   -1.3426   -1.1432    1.0508 H   0  0  0  0  0  0  0  0  0  0  0  0
   -2.1562   -1.1116   -0.5183 H   0  0  0  0  0  0  0  0  0  0  0  0
  1  7  1  0  0  0  0
  1  8  1  0  0  0  0
  1  2  1  0  0  0  0
  2 10  1  0  0  0  0
  2  9  1  0  0  0  0
  3  2  1  0  0  0  0
  3 12  1  0  0  0  0
  3 11  1  0  0  0  0
  4  3  1  0  0  0  0
  5  4  1  0  0  0  0
  6  5  1  0  0  0  0
  6  1  1  0  0  0  0
 13  5  1  0  0  0  0
 14  5  1  0  0  0  0
 15  6  1  0  0  0  0
 16  6  1  0  0  0  0
M  END
$$$$
