
 OpenBabel07282118433D

  7  6  0  0  0  0  0  0  0  0999 V2000
   -0.1529   -0.0000    0.0000 C   0  0  0  0  0  0  0  0  0  0  0  0
   -1.3444   -0.0000    0.0000 C   0  0  0  0  0  0  0  0  0  0  0  0
    1.2797    0.0000    0.0000 C   0  0  0  0  0  0  0  0  0  0  0  0
   -2.4083   -0.0000    0.0000 H   0  0  0  0  0  0  0  0  0  0  0  0
    1.6674    0.5136    0.8896 H   0  0  0  0  0  0  0  0  0  0  0  0
    1.6674    0.5136   -0.8896 H   0  0  0  0  0  0  0  0  0  0  0  0
    1.6674   -1.0272    0.0000 H   0  0  0  0  0  0  0  0  0  0  0  0
  1  2  3  0  0  0  0
  1  3  1  0  0  0  0
  2  4  1  0  0  0  0
  3  7  1  0  0  0  0
  3  5  1  0  0  0  0
  6  3  1  0  0  0  0
M  END
$$$$
