
 OpenBabel07282117543D

 15 14  0  0  0  0  0  0  0  0999 V2000
   -3.3040   -0.1341   -0.0000 H   0  0  0  0  0  0  0  0  0  0  0  0
   -2.3567    0.4195   -0.0000 C   0  0  0  0  0  0  0  0  0  0  0  0
   -2.3524    1.0708   -0.8838 H   0  0  0  0  0  0  0  0  0  0  0  0
   -2.3524    1.0708    0.8838 H   0  0  0  0  0  0  0  0  0  0  0  0
   -1.1852   -0.5442   -0.0000 C   0  0  0  0  0  0  0  0  0  0  0  0
   -1.2067   -1.2015    0.8917 H   0  0  0  0  0  0  0  0  0  0  0  0
   -1.2067   -1.2015   -0.8917 H   0  0  0  0  0  0  0  0  0  0  0  0
    0.0000    0.2371    0.0000 O   0  0  0  0  0  0  0  0  0  0  0  0
    1.1852   -0.5442    0.0000 C   0  0  0  0  0  0  0  0  0  0  0  0
    1.2067   -1.2015    0.8917 H   0  0  0  0  0  0  0  0  0  0  0  0
    1.2067   -1.2015   -0.8917 H   0  0  0  0  0  0  0  0  0  0  0  0
    2.3567    0.4195    0.0000 C   0  0  0  0  0  0  0  0  0  0  0  0
    2.3524    1.0708   -0.8838 H   0  0  0  0  0  0  0  0  0  0  0  0
    2.3524    1.0708    0.8838 H   0  0  0  0  0  0  0  0  0  0  0  0
    3.3040   -0.1341    0.0000 H   0  0  0  0  0  0  0  0  0  0  0  0
  1  2  1  0  0  0  0
  2  3  1  0  0  0  0
  2  4  1  0  0  0  0
  5  8  1  0  0  0  0
  5  2  1  0  0  0  0
  6  5  1  0  0  0  0
  7  5  1  0  0  0  0
  9  8  1  0  0  0  0
  9 12  1  0  0  0  0
 10  9  1  0  0  0  0
 11  9  1  0  0  0  0
 12 13  1  0  0  0  0
 12 14  1  0  0  0  0
 15 12  1  0  0  0  0
M  END
$$$$
