
 OpenBabel08032111013D

 20 20  0  0  0  0  0  0  0  0999 V2000
    1.7988   -0.5653   -0.2591 C   0  0  0  0  0  0  0  0  0  0  0  0
    0.7699   -1.7211   -0.2449 C   0  0  0  0  0  0  0  0  0  0  0  0
   -0.1131   -1.6571    0.9561 C   0  0  0  0  0  0  0  0  0  0  0  0
   -1.2091   -0.8780    0.9975 C   0  0  0  0  0  0  0  0  0  0  0  0
    0.1779   -2.2109    1.8438 H   0  0  0  0  0  0  0  0  0  0  0  0
   -1.7423   -0.8298    1.9430 H   0  0  0  0  0  0  0  0  0  0  0  0
    1.3482    0.8107    0.2297 C   0  0  0  0  0  0  0  0  0  0  0  0
   -1.7862   -0.0566   -0.1547 C   0  0  0  0  0  0  0  0  0  0  0  0
    0.2219    1.4569   -0.1221 C   0  0  0  0  0  0  0  0  0  0  0  0
   -2.3242   -0.7191   -0.8654 H   0  0  0  0  0  0  0  0  0  0  0  0
   -0.8200    0.8243   -0.9825 C   0  0  0  0  0  0  0  0  0  0  0  0
   -2.5510    0.6021    0.3116 H   0  0  0  0  0  0  0  0  0  0  0  0
   -1.4190    1.5984   -1.5082 H   0  0  0  0  0  0  0  0  0  0  0  0
   -0.3143    0.2688   -1.7968 H   0  0  0  0  0  0  0  0  0  0  0  0
    2.0082    1.3180    0.9280 H   0  0  0  0  0  0  0  0  0  0  0  0
    0.0305    2.4470    0.2810 H   0  0  0  0  0  0  0  0  0  0  0  0
    2.2025   -0.4917   -1.2912 H   0  0  0  0  0  0  0  0  0  0  0  0
    2.6503   -0.8439    0.3993 H   0  0  0  0  0  0  0  0  0  0  0  0
    1.3261   -2.6824   -0.2732 H   0  0  0  0  0  0  0  0  0  0  0  0
    0.1316   -1.7466   -1.1501 H   0  0  0  0  0  0  0  0  0  0  0  0
  1  2  1  0  0  0  0
  1  7  1  0  0  0  0
  1 17  1  0  0  0  0
  1 18  1  0  0  0  0
  2  3  1  0  0  0  0
  2 19  1  0  0  0  0
  2 20  1  0  0  0  0
  3  5  1  0  0  0  0
  4  3  2  0  0  0  0
  4  6  1  0  0  0  0
  4  8  1  0  0  0  0
  7  9  2  0  0  0  0
  7 15  1  0  0  0  0
  8 10  1  0  0  0  0
  8 11  1  0  0  0  0
  8 12  1  0  0  0  0
  9 16  1  0  0  0  0
 11 13  1  0  0  0  0
 11 14  1  0  0  0  0
 11  9  1  0  0  0  0
M  END
$$$$
