D:\Users\grsou\Desktop\orbitais\sp2\eteno.xyz
 OpenBabel05142119063D

  6  5  0  0  0  0  0  0  0  0999 V2000
    0.6541   -0.0061   -0.0472 C   0  0  0  0  0  0  0  0  0  0  0  0
   -0.6550    0.0000    0.0001 C   0  0  0  0  0  0  0  0  0  0  0  0
    1.1609    0.1183   -0.9928 H   0  0  0  0  0  0  0  0  0  0  0  0
    1.2267   -0.1309    0.8600 H   0  0  0  0  0  0  0  0  0  0  0  0
   -1.1618   -0.1244    0.9457 H   0  0  0  0  0  0  0  0  0  0  0  0
   -1.2275    0.1293   -0.9065 H   0  0  0  0  0  0  0  0  0  0  0  0
  1  2  2  0  0  0  0
  1  4  1  0  0  0  0
  2  5  1  0  0  0  0
  3  1  1  0  0  0  0
  6  2  1  0  0  0  0
M  END
$$$$
