
 OpenBabel07282118323D

 14 14  0  0  0  0  0  0  0  0999 V2000
    1.1797    0.7671   -0.0111 C   0  0  0  0  0  0  0  0  0  0  0  0
    1.1797   -0.7671    0.0111 C   0  0  0  0  0  0  0  0  0  0  0  0
    0.0000    1.2853   -0.5994 O   0  0  0  0  0  0  0  0  0  0  0  0
   -1.1797    0.7671   -0.0111 C   0  0  0  0  0  0  0  0  0  0  0  0
   -1.1797   -0.7671    0.0111 C   0  0  0  0  0  0  0  0  0  0  0  0
   -0.0000   -1.2853    0.5994 O   0  0  0  0  0  0  0  0  0  0  0  0
    1.9745    1.1718   -0.6576 H   0  0  0  0  0  0  0  0  0  0  0  0
    1.3045   -1.1885   -1.0042 H   0  0  0  0  0  0  0  0  0  0  0  0
   -1.3045    1.1885    1.0042 H   0  0  0  0  0  0  0  0  0  0  0  0
   -1.3045   -1.1885   -1.0042 H   0  0  0  0  0  0  0  0  0  0  0  0
    1.9745   -1.1718    0.6576 H   0  0  0  0  0  0  0  0  0  0  0  0
   -1.9745    1.1718   -0.6576 H   0  0  0  0  0  0  0  0  0  0  0  0
   -1.9745   -1.1718    0.6576 H   0  0  0  0  0  0  0  0  0  0  0  0
    1.3045    1.1885    1.0042 H   0  0  0  0  0  0  0  0  0  0  0  0
  1  2  1  0  0  0  0
  1 14  1  0  0  0  0
  1  7  1  0  0  0  0
  2  8  1  0  0  0  0
  2 11  1  0  0  0  0
  3  1  1  0  0  0  0
  4  5  1  0  0  0  0
  4  3  1  0  0  0  0
  5  6  1  0  0  0  0
  6  2  1  0  0  0  0
  9  4  1  0  0  0  0
 10  5  1  0  0  0  0
 12  4  1  0  0  0  0
 13  5  1  0  0  0  0
M  END
$$$$
