
 OpenBabel07302114273D

 12 11  0  0  0  0  0  0  0  0999 V2000
    0.0448   -0.0318   -0.1999 C   0  0  0  0  0  0  0  0  0  0  0  0
    0.0019    1.1893   -0.2014 O   0  0  0  0  0  0  0  0  0  0  0  0
    1.2037   -0.7027    0.0662 N   0  0  0  0  0  0  0  0  0  0  0  0
    1.2189   -2.1542    0.0597 C   0  0  0  0  0  0  0  0  0  0  0  0
    2.4477   -0.0088    0.3617 C   0  0  0  0  0  0  0  0  0  0  0  0
   -0.8687   -0.5778   -0.4171 H   0  0  0  0  0  0  0  0  0  0  0  0
    0.2204   -2.5822   -0.1766 H   0  0  0  0  0  0  0  0  0  0  0  0
    1.5280   -2.5301    1.0580 H   0  0  0  0  0  0  0  0  0  0  0  0
    1.9395   -2.5179   -0.7032 H   0  0  0  0  0  0  0  0  0  0  0  0
    3.2179   -0.2873   -0.3884 H   0  0  0  0  0  0  0  0  0  0  0  0
    2.8067   -0.2996    1.3717 H   0  0  0  0  0  0  0  0  0  0  0  0
    2.3373    1.0959    0.3436 H   0  0  0  0  0  0  0  0  0  0  0  0
  1  6  1  0  0  0  0
  1  2  2  0  0  0  0
  3  1  1  0  0  0  0
  4  7  1  0  0  0  0
  4  3  1  0  0  0  0
  5 11  1  0  0  0  0
  5  3  1  0  0  0  0
  5 12  1  0  0  0  0
  8  4  1  0  0  0  0
  9  4  1  0  0  0  0
 10  5  1  0  0  0  0
M  END
$$$$
