* (null),
 OpenBabel06012120303D

  3  2  0  0  0  0  0  0  0  0999 V2000
   -0.0131   -0.0125   -0.0138 O   0  0  0  0  0  0  0  0  0  0  0  0
    0.9486    0.0195    0.0215 H   0  0  0  0  0  0  0  0  0  0  0  0
   -0.2888    0.6074    0.6696 H   0  0  0  0  0  0  0  0  0  0  0  0
  1  2  1  0  0  0  0
  1  3  1  0  0  0  0
M  END
$$$$
* Frequency(6) 1711.5394
 OpenBabel06012120303D

  3  2  0  0  0  0  0  0  0  0999 V2000
   -0.0039   -0.0037   -0.0040 O   0  0  0  0  0  0  0  0  0  0  0  0
    0.9541   -0.0881   -0.0971 H   0  0  0  0  0  0  0  0  0  0  0  0
   -0.4416    0.5750    0.6339 H   0  0  0  0  0  0  0  0  0  0  0  0
  1  3  1  0  0  0  0
  2  1  1  0  0  0  0
M  END
$$$$
* Frequency(6) 1711.5394
 OpenBabel06012120303D

  3  2  0  0  0  0  0  0  0  0999 V2000
    0.0044    0.0042    0.0046 O   0  0  0  0  0  0  0  0  0  0  0  0
    0.9589   -0.1841   -0.2029 H   0  0  0  0  0  0  0  0  0  0  0  0
   -0.5780    0.5460    0.6020 H   0  0  0  0  0  0  0  0  0  0  0  0
  1  3  1  0  0  0  0
  2  1  1  0  0  0  0
M  END
$$$$
* Frequency(6) 1711.5394
 OpenBabel06012120303D

  3  2  0  0  0  0  0  0  0  0999 V2000
    0.0108    0.0103    0.0113 O   0  0  0  0  0  0  0  0  0  0  0  0
    0.9627   -0.2580   -0.2844 H   0  0  0  0  0  0  0  0  0  0  0  0
   -0.6829    0.5238    0.5774 H   0  0  0  0  0  0  0  0  0  0  0  0
  1  3  1  0  0  0  0
  2  1  1  0  0  0  0
M  END
$$$$
* Frequency(6) 1711.5394
 OpenBabel06012120303D

  3  2  0  0  0  0  0  0  0  0999 V2000
    0.0146    0.0139    0.0153 O   0  0  0  0  0  0  0  0  0  0  0  0
    0.9649   -0.3018   -0.3328 H   0  0  0  0  0  0  0  0  0  0  0  0
   -0.7452    0.5106    0.5629 H   0  0  0  0  0  0  0  0  0  0  0  0
  1  3  1  0  0  0  0
  2  1  1  0  0  0  0
M  END
$$$$
* Frequency(6) 1711.5394
 OpenBabel06012120303D

  3  2  0  0  0  0  0  0  0  0999 V2000
    0.0154    0.0146    0.0161 O   0  0  0  0  0  0  0  0  0  0  0  0
    0.9654   -0.3108   -0.3427 H   0  0  0  0  0  0  0  0  0  0  0  0
   -0.7580    0.5079    0.5599 H   0  0  0  0  0  0  0  0  0  0  0  0
  1  3  1  0  0  0  0
  2  1  1  0  0  0  0
M  END
$$$$
* Frequency(6) 1711.5394
 OpenBabel06012120303D

  3  2  0  0  0  0  0  0  0  0999 V2000
    0.0131    0.0124    0.0137 O   0  0  0  0  0  0  0  0  0  0  0  0
    0.9640   -0.2841   -0.3132 H   0  0  0  0  0  0  0  0  0  0  0  0
   -0.7199    0.5159    0.5688 H   0  0  0  0  0  0  0  0  0  0  0  0
  1  3  1  0  0  0  0
  2  1  1  0  0  0  0
M  END
$$$$
* Frequency(6) 1711.5394
 OpenBabel06012120303D

  3  2  0  0  0  0  0  0  0  0999 V2000
    0.0079    0.0075    0.0083 O   0  0  0  0  0  0  0  0  0  0  0  0
    0.9610   -0.2244   -0.2474 H   0  0  0  0  0  0  0  0  0  0  0  0
   -0.6352    0.5339    0.5886 H   0  0  0  0  0  0  0  0  0  0  0  0
  1  3  1  0  0  0  0
  2  1  1  0  0  0  0
M  END
$$$$
* Frequency(6) 1711.5394
 OpenBabel06012120303D

  3  2  0  0  0  0  0  0  0  0999 V2000
    0.0005    0.0004    0.0005 O   0  0  0  0  0  0  0  0  0  0  0  0
    0.9566   -0.1382   -0.1524 H   0  0  0  0  0  0  0  0  0  0  0  0
   -0.5129    0.5598    0.6172 H   0  0  0  0  0  0  0  0  0  0  0  0
  1  3  1  0  0  0  0
  2  1  1  0  0  0  0
M  END
$$$$
* Frequency(6) 1711.5394
 OpenBabel06012120303D

  3  2  0  0  0  0  0  0  0  0999 V2000
   -0.0084   -0.0080   -0.0088 O   0  0  0  0  0  0  0  0  0  0  0  0
    0.9514   -0.0350   -0.0386 H   0  0  0  0  0  0  0  0  0  0  0  0
   -0.3663    0.5909    0.6515 H   0  0  0  0  0  0  0  0  0  0  0  0
  1  3  1  0  0  0  0
  2  1  1  0  0  0  0
M  END
$$$$
* Frequency(6) 1711.5394
 OpenBabel06012120303D

  3  2  0  0  0  0  0  0  0  0999 V2000
   -0.0179   -0.0170   -0.0187 O   0  0  0  0  0  0  0  0  0  0  0  0
    0.9458    0.0741    0.0817 H   0  0  0  0  0  0  0  0  0  0  0  0
   -0.2113    0.6238    0.6877 H   0  0  0  0  0  0  0  0  0  0  0  0
  1  2  1  0  0  0  0
  1  3  1  0  0  0  0
M  END
$$$$
* Frequency(6) 1711.5394
 OpenBabel06012120303D

  3  2  0  0  0  0  0  0  0  0999 V2000
   -0.0268   -0.0254   -0.0280 O   0  0  0  0  0  0  0  0  0  0  0  0
    0.9406    0.1773    0.1955 H   0  0  0  0  0  0  0  0  0  0  0  0
   -0.0647    0.6549    0.7220 H   0  0  0  0  0  0  0  0  0  0  0  0
  1  2  1  0  0  0  0
  1  3  1  0  0  0  0
M  END
$$$$
* Frequency(6) 1711.5394
 OpenBabel06012120303D

  3  2  0  0  0  0  0  0  0  0999 V2000
   -0.0342   -0.0325   -0.0358 O   0  0  0  0  0  0  0  0  0  0  0  0
    0.9362    0.2635    0.2904 H   0  0  0  0  0  0  0  0  0  0  0  0
    0.0576    0.6808    0.7506 H   0  0  0  0  0  0  0  0  0  0  0  0
  1  2  1  0  0  0  0
  1  3  1  0  0  0  0
M  END
$$$$
* Frequency(6) 1711.5394
 OpenBabel06012120303D

  3  2  0  0  0  0  0  0  0  0999 V2000
   -0.0393   -0.0374   -0.0412 O   0  0  0  0  0  0  0  0  0  0  0  0
    0.9332    0.3231    0.3563 H   0  0  0  0  0  0  0  0  0  0  0  0
    0.1424    0.6988    0.7704 H   0  0  0  0  0  0  0  0  0  0  0  0
  1  2  1  0  0  0  0
  1  3  1  0  0  0  0
M  END
$$$$
* Frequency(6) 1711.5394
 OpenBabel06012120303D

  3  2  0  0  0  0  0  0  0  0999 V2000
   -0.0416   -0.0396   -0.0436 O   0  0  0  0  0  0  0  0  0  0  0  0
    0.9318    0.3499    0.3858 H   0  0  0  0  0  0  0  0  0  0  0  0
    0.1804    0.7069    0.7793 H   0  0  0  0  0  0  0  0  0  0  0  0
  1  2  1  0  0  0  0
  1  3  1  0  0  0  0
M  END
$$$$
* Frequency(6) 1711.5394
 OpenBabel06012120303D

  3  2  0  0  0  0  0  0  0  0999 V2000
   -0.0409   -0.0388   -0.0428 O   0  0  0  0  0  0  0  0  0  0  0  0
    0.9323    0.3409    0.3759 H   0  0  0  0  0  0  0  0  0  0  0  0
    0.1676    0.7042    0.7763 H   0  0  0  0  0  0  0  0  0  0  0  0
  1  2  1  0  0  0  0
  1  3  1  0  0  0  0
M  END
$$$$
* Frequency(6) 1711.5394
 OpenBabel06012120303D

  3  2  0  0  0  0  0  0  0  0999 V2000
   -0.0371   -0.0352   -0.0389 O   0  0  0  0  0  0  0  0  0  0  0  0
    0.9345    0.2971    0.3275 H   0  0  0  0  0  0  0  0  0  0  0  0
    0.1054    0.6910    0.7618 H   0  0  0  0  0  0  0  0  0  0  0  0
  1  2  1  0  0  0  0
  1  3  1  0  0  0  0
M  END
$$$$
* Frequency(6) 1711.5394
 OpenBabel06012120303D

  3  2  0  0  0  0  0  0  0  0999 V2000
   -0.0307   -0.0292   -0.0322 O   0  0  0  0  0  0  0  0  0  0  0  0
    0.9382    0.2232    0.2460 H   0  0  0  0  0  0  0  0  0  0  0  0
    0.0004    0.6687    0.7372 H   0  0  0  0  0  0  0  0  0  0  0  0
  1  2  1  0  0  0  0
  1  3  1  0  0  0  0
M  END
$$$$
* Frequency(6) 1711.5394
 OpenBabel06012120303D

  3  2  0  0  0  0  0  0  0  0999 V2000
   -0.0224   -0.0213   -0.0235 O   0  0  0  0  0  0  0  0  0  0  0  0
    0.9431    0.1272    0.1402 H   0  0  0  0  0  0  0  0  0  0  0  0
   -0.1359    0.6398    0.7053 H   0  0  0  0  0  0  0  0  0  0  0  0
  1  2  1  0  0  0  0
  1  3  1  0  0  0  0
M  END
$$$$
* Frequency(6) 1711.5394
 OpenBabel06012120303D

  3  2  0  0  0  0  0  0  0  0999 V2000
   -0.0131   -0.0125   -0.0138 O   0  0  0  0  0  0  0  0  0  0  0  0
    0.9486    0.0195    0.0215 H   0  0  0  0  0  0  0  0  0  0  0  0
   -0.2888    0.6074    0.6696 H   0  0  0  0  0  0  0  0  0  0  0  0
  1  2  1  0  0  0  0
  1  3  1  0  0  0  0
M  END
$$$$
