
 OpenBabel07302116143D

  8  7  0  0  0  0  0  0  0  0999 V2000
   -1.3379   -1.3525    0.9500 H   0  0  0  0  0  0  0  0  0  0  0  0
   -1.3157   -0.7207    0.0378 C   0  0  0  0  0  0  0  0  0  0  0  0
   -1.3798   -1.3715   -0.8590 H   0  0  0  0  0  0  0  0  0  0  0  0
   -2.1926   -0.0385    0.0509 H   0  0  0  0  0  0  0  0  0  0  0  0
   -0.0393    0.0568   -0.0000 C   0  0  0  0  0  0  0  0  0  0  0  0
   -0.0642    1.2784   -0.0123 O   0  0  0  0  0  0  0  0  0  0  0  0
    1.1406   -0.5976   -0.0205 O   0  0  0  0  0  0  0  0  0  0  0  0
    1.9822   -0.1204   -0.0450 H   0  0  0  0  0  0  0  0  0  0  0  0
  2  4  1  0  0  0  0
  2  5  1  0  0  0  0
  2  1  1  0  0  0  0
  3  2  1  0  0  0  0
  5  6  2  0  0  0  0
  5  7  1  0  0  0  0
  7  8  1  0  0  0  0
M  END
$$$$
