
 OpenBabel07282117523D

  9  8  0  0  0  0  0  0  0  0999 V2000
   -1.9705   -0.0110   -0.0000 H   0  0  0  0  0  0  0  0  0  0  0  0
   -1.1795   -0.7644   -0.0000 C   0  0  0  0  0  0  0  0  0  0  0  0
   -1.2599   -1.3945    0.8939 H   0  0  0  0  0  0  0  0  0  0  0  0
   -1.2599   -1.3945   -0.8939 H   0  0  0  0  0  0  0  0  0  0  0  0
    0.0000    0.0000    0.0000 O   0  0  0  0  0  0  0  0  0  0  0  0
    1.1795   -0.7644    0.0000 C   0  0  0  0  0  0  0  0  0  0  0  0
    1.2599   -1.3945    0.8939 H   0  0  0  0  0  0  0  0  0  0  0  0
    1.2599   -1.3945   -0.8939 H   0  0  0  0  0  0  0  0  0  0  0  0
    1.9705   -0.0110    0.0000 H   0  0  0  0  0  0  0  0  0  0  0  0
  2  1  1  0  0  0  0
  2  5  1  0  0  0  0
  3  2  1  0  0  0  0
  4  2  1  0  0  0  0
  6  9  1  0  0  0  0
  6  5  1  0  0  0  0
  7  6  1  0  0  0  0
  8  6  1  0  0  0  0
M  END
$$$$
