
 OpenBabel05202115533D

  9  9  0  0  1  0  0  0  0  0999 V2000
   -0.6604    0.9774    1.0833 C   0  0  1  0  0  0  0  0  0  0  0  0
    0.0238    1.4765   -0.1566 C   0  0  0  0  0  0  0  0  0  0  0  0
    0.8330    0.9301    0.9841 C   0  0  1  0  0  0  0  0  0  0  0  0
   -0.0549    0.8756   -1.0540 H   0  0  0  0  0  0  0  0  0  0  0  0
    0.0453    2.5445   -0.3402 H   0  0  0  0  0  0  0  0  0  0  0  0
    1.3065   -0.0355    0.8636 H   0  0  0  0  0  0  0  0  0  0  0  0
    1.8709    2.0101    1.8728 Cl  0  0  0  0  0  0  0  0  0  0  0  0
   -1.5017    2.1168    2.0969 Cl  0  0  0  0  0  0  0  0  0  0  0  0
   -1.2055    0.0439    1.0305 H   0  0  0  0  0  0  0  0  0  0  0  0
  1  3  1  1  0  0  0
  1  8  1  0  0  0  0
  2  1  1  0  0  0  0
  2  5  1  0  0  0  0
  3  6  1  6  0  0  0
  3  2  1  0  0  0  0
  3  7  1  0  0  0  0
  4  2  1  0  0  0  0
  9  1  1  0  0  0  0
M  END
$$$$
