
 OpenBabel05192117233D

  5  4  0  0  0  0  0  0  0  0999 V2000
   -1.1113   -1.2589    1.2491 C   0  0  0  0  0  0  0  0  0  0  0  0
   -0.1950   -1.5419    0.6913 H   0  0  0  0  0  0  0  0  0  0  0  0
   -2.0062   -1.5321    0.6532 H   0  0  0  0  0  0  0  0  0  0  0  0
   -1.1079    0.4946    1.5436 Cl  0  0  0  0  0  0  0  0  0  0  0  0
   -1.1346   -1.7967    2.2192 H   0  0  0  0  0  0  0  0  0  0  0  0
  1  2  1  0  0  0  0
  1  4  1  0  0  0  0
  3  1  1  0  0  0  0
  5  1  1  0  0  0  0
M  END
$$$$
