D:\Users\grsou\Documents\Dropbox\Moleculas\cicloalcanos\ciclopropano.xyz
 OpenBabel05192117413D

  9  9  0  0  0  0  0  0  0  0999 V2000
   -0.4884    0.6781   -0.1581 C   0  0  0  0  0  0  0  0  0  0  0  0
    0.8663    0.1081    0.1523 C   0  0  0  0  0  0  0  0  0  0  0  0
   -0.9406    1.3412    0.5704 H   0  0  0  0  0  0  0  0  0  0  0  0
   -0.3488   -0.7739    0.2009 C   0  0  0  0  0  0  0  0  0  0  0  0
   -0.7112    0.9283   -1.1890 H   0  0  0  0  0  0  0  0  0  0  0  0
    1.3319    0.3850    1.0911 H   0  0  0  0  0  0  0  0  0  0  0  0
    1.5613   -0.0280   -0.6682 H   0  0  0  0  0  0  0  0  0  0  0  0
   -0.4770   -1.5074   -0.5867 H   0  0  0  0  0  0  0  0  0  0  0  0
   -0.7063   -1.0944    1.1727 H   0  0  0  0  0  0  0  0  0  0  0  0
  1  2  1  0  0  0  0
  1  4  1  0  0  0  0
  1  3  1  0  0  0  0
  2  4  1  0  0  0  0
  2  6  1  0  0  0  0
  4  9  1  0  0  0  0
  5  1  1  0  0  0  0
  7  2  1  0  0  0  0
  8  4  1  0  0  0  0
M  END
$$$$
